LTspice 24.0.12 for Windows
Circuit: * C:\users\malinkyzubr\Desktop\ARISS-Main\AMModulation2.asc
Start Time: Wed Jul 10 16:31:24 2024
Warning: Multiple definitions of model "2scr375p" Type: BJT
Warning: Multiple definitions of model "bc857b" Type: BJT
Warning: Multiple definitions of model "bc847c" Type: BJT
Warning: Multiple definitions of model "bc847b" Type: BJT
solver = Normal
Maximum thread count: 20
tnom = 27
temp = 27
method = modified trap
Direct Newton iteration for .op point succeeded.
Total elapsed time: 0.872 seconds.

